Version 4
SHEET 1 916 860
WIRE -416 -80 -496 -80
WIRE -336 -80 -416 -80
WIRE -528 -64 -928 -64
WIRE 432 -64 352 -64
WIRE 320 -48 -80 -48
WIRE -848 -16 -880 -16
WIRE -592 -16 -592 -96
WIRE -592 -16 -624 -16
WIRE -336 -16 -336 -80
WIRE -880 0 -880 -16
WIRE 0 0 -32 0
WIRE 256 0 256 -80
WIRE 256 0 224 0
WIRE -32 16 -32 0
WIRE -928 48 -928 -64
WIRE -848 48 -928 48
WIRE -496 48 -496 -80
WIRE -496 48 -624 48
WIRE -80 64 -80 -48
WIRE 0 64 -80 64
WIRE 352 64 352 -64
WIRE 352 64 224 64
WIRE -848 112 -960 112
WIRE -528 112 -528 -64
WIRE -528 112 -624 112
WIRE -496 112 -528 112
WIRE 0 128 -112 128
WIRE 320 128 320 -48
WIRE 320 128 224 128
WIRE 352 128 320 128
WIRE -544 176 -624 176
WIRE -496 176 -496 112
WIRE -416 176 -416 160
WIRE -416 176 -496 176
WIRE -336 176 -336 48
WIRE -336 176 -416 176
WIRE -544 192 -544 176
WIRE 0 192 -112 192
WIRE 304 192 224 192
WIRE 352 192 352 128
WIRE 432 192 432 128
WIRE 432 192 352 192
WIRE 304 208 304 192
WIRE -160 400 -160 368
WIRE 80 432 64 432
WIRE -960 448 -960 112
WIRE -160 528 -160 480
FLAG 80 512 0
FLAG -880 0 0
FLAG -592 -96 Vcc
FLAG -848 176 Vcc
FLAG -416 -272 Vcc
FLAG -416 240 0
FLAG -960 448 vout1
FLAG 80 432 burst
FLAG -32 16 0
FLAG 256 -80 Vcc
FLAG 432 -256 Vcc
FLAG 432 256 0
FLAG -160 368 Vcc
FLAG -160 528 0
FLAG -112 128 vout_totaal
FLAG -112 192 vout1
SYMBOL LT-Poelaert.sym\\signal 80 416 R0
WINDOW 123 0 0 Left 0
WINDOW 39 0 0 Left 0
SYMATTR InstName V2
SYMATTR Value PULSE(0 12 1P 1P 1P 0.6m 1.2m 1)
SYMBOL LT-Poelaert.sym\\NE555 -736 80 R0
SYMATTR InstName U2
SYMBOL LT-Poelaert.sym\\EuropeanResistor -416 -32 R0
SYMATTR InstName Pb1
SYMATTR Value 2.5k
SYMBOL LT-Poelaert.sym\\EuropeanResistor -416 64 R0
SYMATTR InstName R3
SYMATTR Value 18k
SYMBOL LT-Poelaert.sym\\EuropeanResistor -416 -128 R0
SYMATTR InstName Pa1
SYMATTR Value 2.5K
SYMBOL LT-Poelaert.sym\\EuropeanResistor -416 -224 R0
SYMATTR InstName R4
SYMATTR Value 18k
SYMBOL LT-Poelaert.sym\\EuropeanCap -544 208 R0
SYMATTR Value 10n
SYMATTR InstName C3
SYMBOL LT-Poelaert.sym\\EuropeanCap -416 208 R0
SYMATTR InstName C4
SYMATTR Value 100n
SYMBOL LT-Poelaert.sym\\diode -400 176 R180
WINDOW 0 24 72 Left 0
WINDOW 3 24 0 Left 0
SYMATTR InstName D1
SYMATTR Value 1N4148
SYMBOL LT-Poelaert.sym\\diode -352 -16 R0
SYMATTR InstName D2
SYMATTR Value 1N4148
SYMBOL LT-Poelaert.sym\\NE555 112 96 R0
SYMATTR InstName U1
SYMBOL LT-Poelaert.sym\\EuropeanResistor 432 -16 R0
SYMATTR Value 2.01K
SYMATTR InstName Pb2
SYMBOL LT-Poelaert.sym\\EuropeanResistor 432 80 R0
SYMATTR InstName R1
SYMATTR Value 5.6K
SYMBOL LT-Poelaert.sym\\EuropeanResistor 432 -112 R0
SYMATTR InstName Pa2
SYMATTR Value 2.99K
SYMBOL LT-Poelaert.sym\\EuropeanResistor 432 -208 R0
SYMATTR InstName R2
SYMATTR Value 5.6k
SYMBOL LT-Poelaert.sym\\EuropeanCap 304 224 R0
SYMATTR Value 10n
SYMATTR InstName C1
SYMBOL LT-Poelaert.sym\\EuropeanCap 432 224 R0
SYMATTR InstName C2
SYMATTR Value 1.5n
SYMBOL voltage -160 384 R0
WINDOW 123 0 0 Left 0
WINDOW 39 0 0 Left 0
SYMATTR InstName V1
SYMATTR Value 12
TEXT -616 560 Left 2 !.tran 0 20ms 0.00001ms
