Version 4
SHEET 1 880 680
WIRE 240 -32 96 -32
WIRE 400 -32 320 -32
WIRE 400 80 400 -32
WIRE 400 80 368 80
WIRE 416 80 400 80
WIRE 608 80 480 80
WIRE 656 80 608 80
WIRE 96 96 96 -32
WIRE 96 96 48 96
WIRE 192 96 96 96
WIRE 432 112 368 112
WIRE 192 128 160 128
WIRE 432 128 432 112
WIRE 480 128 432 128
WIRE 512 128 480 128
WIRE 608 128 608 80
WIRE 416 144 368 144
WIRE 96 192 32 192
WIRE 160 192 160 128
WIRE 160 192 96 192
WIRE 96 208 96 192
WIRE 480 208 480 128
WIRE 528 208 480 208
WIRE 608 208 608 128
WIRE 608 208 592 208
WIRE 608 224 608 208
WIRE 96 288 96 272
WIRE 480 320 480 304
WIRE 608 320 608 288
FLAG 416 144 0
FLAG 656 80 vout
FLAG 96 288 0
FLAG 48 96 vin
FLAG 32 192 SHDN_N
FLAG 608 320 0
FLAG 480 320 0
SYMBOL AutoGenerated\\LM2731Y_TRANS 272 112 R0
SYMATTR InstName U1
SYMBOL LT-Poelaert.sym\\EuropeanResistor 96 144 R0
SYMATTR InstName R3
SYMATTR Value 51K
SYMBOL ind 224 -16 R270
WINDOW 0 32 56 VTop 2
WINDOW 3 5 56 VBottom 2
SYMATTR InstName L1
SYMBOL cap 80 208 R0
SYMATTR InstName C1
SYMATTR Value 2.2µF
SYMBOL LT-Poelaert.sym\\zener 416 96 R270
WINDOW 0 36 32 VTop 2
WINDOW 3 -4 32 VBottom 2
SYMATTR InstName D1
SYMATTR Value PMEG2020AEA
SYMBOL LT-Poelaert.sym\\EuropeanResistor 560 128 R90
WINDOW 0 -11 0 VBottom 2
WINDOW 3 11 0 VTop 2
SYMATTR InstName R1a
SYMATTR Value 783k
SYMBOL LT-Poelaert.sym\\EuropeanResistor 480 256 R0
SYMATTR InstName R2A
SYMATTR Value 15k
SYMBOL cap 592 224 R0
SYMATTR InstName C2
SYMATTR Value 10µF
SYMBOL cap 528 224 R270
WINDOW 0 32 32 VTop 2
WINDOW 3 0 32 VBottom 2
SYMATTR InstName C3
SYMATTR Value Cf
SYMBOL LT-Poelaert.sym\\EuropeanResistor 656 128 R90
WINDOW 0 -11 0 VBottom 2
WINDOW 3 11 0 VTop 2
SYMATTR InstName r1b
SYMATTR Value 217k
TEXT 176 -112 Left 2 ;ENKEL KERAMIEKEN CAPACITEITEN GEBRUIKEN
